Circuit: * C:\Users\RossHarvey\Documents\School\EE4951_REPO\Simulation\Power Subsystem\New Power Switching Simulation\Power_Switching_Simulation_10-24-15.asc

Warning: Multiple definitions of model "rfn30ts6d" Type: Diode
Direct Newton iteration failed to find .op point.  (Use ".option noopiter" to skip.)
Starting Gmin stepping
Gmin = 10
Gmin = 1.07374
Gmin = 0.115292
Gmin = 0.0123794
Gmin = 0.00132923
Gmin = 0.000142725
Gmin = 1.5325e-005
Gmin = 1.6455e-006
Gmin = 1.76685e-007
Gmin = 1.89714e-008
Gmin = 2.03704e-009
Gmin = 2.18725e-010
Gmin = 2.34854e-011
Gmin = 2.52173e-012
Gmin = 2.70769e-013
Gmin = 0
Gmin stepping succeeded in finding the operating point.


Date: Sat Oct 24 11:30:44 2015
Total elapsed time: 1.174 seconds.

tnom = 27
temp = 27
method = modified trap
totiter = 12614
traniter = 12119
tranpoints = 3563
accept = 2906
rejected = 657
matrix size = 57
fillins = 28
solver = Normal
Thread vector: 25.3/13.9[3] 5.9/3.3[3] 3.1/1.9[3] 0.2/0.8[1]  2592/500
Matrix Compiler1: 4.41 KB object code size  1.7/0.7/[0.4]
Matrix Compiler2: off  [0.7]/1.0/0.8


