Circuit: * C:\Users\James\Desktop\Converter Selection Controls.asc

Per .tran options, skipping operating point for transient analysis.

Date: Tue Oct 06 12:36:01 2015
Total elapsed time: 0.773 seconds.

tnom = 27
temp = 27
method = modified trap
totiter = 8715
traniter = 8715
tranpoints = 2428
accept = 2011
rejected = 417
matrix size = 40
fillins = 8
solver = Normal
Matrix Compiler1: 2.96 KB object code size  2.9/3.1/[1.7]
Matrix Compiler2: 3.71 KB object code size  2.1/2.5/[1.6]


